ucte/ucte-converter/src/test/resources/beTestGridForMerging.uct
##C 2007.05.01
Test case for UCTE merge export in PowSyBl core package
contact : sebastien.murgey@rte-france.com
##N
##ZBE
BBBBBB11              0 0 122.66 3.96708       0       0       0       0       0       0       0
##ZXX
XXXXXX11              0 0 122.66 3.96708       0       0       0       0       0       0       0
XXXXXX12              0 0 122.66 3.96708       0       0       0       0       0       0       0
##L
BBBBBB11 XXXXXX11 1 8      0 0.2000        0   5051
BBBBBB11 XXXXXX12 1 1      0 0.2000        0   5051
##T
##R